 GALVESTON BAY                     ! 32 CHARACTER ALPHANUMERIC RUN DESCRIPTION
 R02                     ! 24 CHARACTER ALPANUMERIC RUN IDENTIFICATION 
 1 output/galv_1.mat ! IHOT - parameter fort hot start, 0=cold, 67-read fort.67 (binary)
 1 ! ICS - COORDINATE SYSTEM SELECTION PARAMETER
 1 ! NOLIBF - BOTTOM FRICTION TERM SELECTION PARAMETER
 0 ! NWP - VARIABLE BOTTOM FRICTION AND LATERAL VISCOSITY OPTION PARAMETER
 0 ! NCOR - VARIABLE CORIOLIS IN SPACE OPTION PARAMETER
 0 ! NTIP - TIDAL POTENTIAL OPTION PARAMETER
 0 ! NWS - WIND STRESS AND BAROMETRIC PRESSURE OPTION PARAMETER
 0 ! NRAMP - RAMP FUNCTION OPTION
 9.81   ! G - ACCELERATION DUE TO GRAVITY - DETERMINES UNITS 
 0  ! NUMBER OF QUADRATURE POINTS
 0      ! NDTVAR - VARIABLE TIME STEP SELECTION PARAMETER, 0=NO, 1=YES
 5.0  ! DT - TIME STEP (IN SECONDS)
 10.0    ! STATIM - STARTING TIME (IN DAYS)
 0.0    ! REFTIM - REFERENCE TIME (IN DAYS)
 90.0  ! RNDAY - TOTAL LENGTH OF SIMULATION (IN DAYS) (12.0 DAYS)
 1      ! IRK - TIME STEPPING SCHEME: 1=EULER FORWARD, 2=2nd ORDER RUNGE-KUTTA
 2      ! ISLOPE - SLOPE LIMITING PARAMETER: 1=YES, 0=NO.
 0      ! ITRANS - 0=TRANSIENT, 1=STEADY STATE CALCULATION
 1.0E-5 ! CONVCR - CONV. CRITERIA FOR STEADY STATE CALCULATIONS
 2.0  ! DRAMP - DURATION OF RAMP FUNCTION (IN DAYS)
 0.25   ! H0 - MIMINMUM CUTOFF DEPTH
 282.5 24.0 ! SLAM0,SFEA0 - CENTER OF CPP PROJECTION IN DEGREES LONG/LAT
 0.0001 ! TAU - LINEARIZED FRICTION COEF USED WHEN NOLI = 0 OR 1
 0.0040  ! CF - BOTTOM FRICTION COEFFICIENT USED WHEN NOLI = 2 OR 3; IGNORED IF NWP = 1
 0      ! NVISC - LATERAL EDDY VISCOSITY SELECTION PARAMETER; 0=NO, 1=YES
 1.0E-3  ! ESL - LATERAL EDDY VISCOSITY COEFFICIENT; IGNORED IF NWP =1
 7.07E-5  ! CORI - CORIOLIS PARAMETER - IGNORED IF NCOR = 1, 7.07E-5
 0 ! NUMBER OF TIDAL POTENTIAL CONSTITUENTS BEING FORCED
 5 ! NBFR - TOTAL NUMBER OF FORCING FREQUENCIES ON OPEN BOUNDARIES
 O1
 0.000067597751162 1.0 0.0 ! CONST. FREQ., NODAL FACTOR, EQUIL. ARG.
 K1
 0.000072921165921 1.0 0.0
 N2
 0.000137879713787 1.0 0.0
 M2
 0.000140518917083 1.0 0.0
 S2
 0.000145444119418 1.0 0.0
0 0.0 12.0  30 ! NOUTE,TOUTSE,TOUTFE,NSPOOLE:ELEV STATION OUTPUT INFO (UNIT  61)
0 ! TOTAL NUMBER OF ELEVATION RECORDING STATIONS
0 0.0 12.0  30 ! NOUTV,TOUTSV,TOUTFV,NSPOOLV:ELEV STATION OUTPUT INFO (UNIT  62)
0  ! TOTAL NUMBER OF VELOCITY RECORDING STATIONS
1 0.0 12.0 90 ! NOUTGE,TOUTSGE,TOUTFGE,NSPOOLGE : GLOBAL OUTPUT INFO (UNIT  63)
1 0.0 12.0 90 ! NOUTGV,TOUTSGV,TOUTFGV,NSPOOLGV : GLOBAL OUTPUT INFO (UNIT  64)
1 172800     ! hot start output control
