 gom_g15ll                 ! 30 CHARACTER ALPHANUMERIC RUN DESCRIPTION
 v23.09/a1                 ! 20 CHARACTER ALPANUMERIC RUN IDENTIFICATION 
 0  OUTPUT/GOM.hot ! IHOT - HOT START PARAMETER (0=cold, 67 or 68 = hot)
 2 ! ICS - COORDINATE SYSTEM SELECTION PARAMETER (1=xy, 2=spherical)
 1 ! NOLIBF - BOTTOM FRICTION TERM SELECTION PARAMETER (0=lineaized tau)
 0 ! NWP - VARIABLE BOTTOM FRICTION AND LATERAL VISCOSITY OPTION PARAMETER (0=homgeneous)
 1 ! NCOR - VARIABLE CORIOLIS IN SPACE OPTION PARAMETER (0=homogeneous)
 1 ! NTIP - TIDAL POTENTIAL OPTION PARAMETER (0=omit)
 0 ! NWS - WIND STRESS AND BAROMETRIC PRESSURE OPTION PARAMETER (0=no wind)
 0 ! NRAMP - RAMP FUNCTION OPTION (0=no ramp)
 9.81   ! G - ACCELERATION DUE TO GRAVITY - DETERMINES UNITS 
 0      ! NUMBER OF QUADRATURE POINTS
 0      ! NDTVAR - AUTOMATIC TIME STEP SELECTION PARAMETER, 0=NO, 1=YES
 45.    ! DT - TIME STEP (IN SECONDS) ! 15.0
 0.    ! STATIM - STARTING TIME (IN DAYS)
 0.0    ! REFTIM - REFERENCE TIME (IN DAYS) (determines tides)
 10.0   ! RNDAY - TOTAL LENGTH OF SIMULATION (IN DAYS) ! 21.0
 1      ! IRK - TIME STEPPING SCHEME: 1=EULER FORWARD, 2=2nd ORDER RUNGE-KUTTA
 2      ! Riemann solver switch parameter 0-HLL, 1-Roe, 2-Roe+entropy fix, 3-Lax-Friedrichs
 0      ! ITRANS - 0=TRANSIENT, 1=STEADY STATE CALCULATION
 1.0E-5 ! CONVCR - CONV. CRITERIA FOR STEADY STATE CALCULATIONS
 2.     ! DRAMP - DURATION OF RAMP FUNCTION (IN DAYS) (96% value)
 0.25  ! H0 - MINIMUM CUTOFF DEPTH
 -90.269302 24.898645 ! SLAM0,SFEA0 - CENTER OF CPP PROJECTION IN DEGREES LONG/LAT
 0.0001 ! TAU - LINEARIZED FRICTION COEF USED WHEN NOLIBF=0     
 0.003  ! CF - BOTTOM FRICTION COEFFICIENT USED WHEN NOLIBF=1 AND NWP=0
 0      ! NVISC - VISCOUS TERSM SELECTIOn PARAMETER, 0=NO, 1=YES
 4.0E-1 ! ESL - LATERAL EDDY VISCOSITY COEFFICIENT; IGNORED IF NWP =1
 7.07E-5 ! CORI - CORIOLIS PARAMETER - IGNORED IF NCOR = 1
 1 ! NUMBER OF TIDAL POTENTIAL CONSTITUENTS BEING FORCED
 M2                                       ! TIPOTAG - NAME OF TIDAL POTENTIAL CONSTITUENT
 0.24233400 0.000140518902509 0.693 0.964 70.940    ! TPK, AMIGT, ETRF, FFT, FACET - CONSTITUENT PR
 1 ! NBFR - TOTAL NUMBER OF FORCING FREQUENCIES ON OPEN BOUNDARIES
 M2                                       ! BOUNTAG - FORCING CONSTITUENT NAME
 0.000140518902509 0.964 70.940
 0 0.0 21.0  300 ! NOUTE,TOUTSE,TOUTFE,NSPOOLE:ELEV STATION OUTPUT (unit 61) (1=ascii,start day,end day,steps between output)
 0   ! TOTAL NUMBER OF ELEVATION RECORDING STATIONS
 0 0.0 21.0 300 ! NOUTE,TOUTSE,TOUTFE,NSPOOLE:ELEV STATION OUTPUT INFO (UNIT  62) (see above)
 0 ! TOTAL NUMBER OF VELOCITY RECORDING STATIONS
 1 0.0 15. 80 ! NOUTGE,TOUTSGE,TOUTFGE,NSPOOLGE : GLOBAL ELEV OUTPUT (UNIT  63) (see above)
 1 0.0 15. 80 ! NOUTGV,TOUTSGV,TOUTFGV,NSPOOLGV : GLOBAL VEL  OUTPUT (UNIT  64) (see above)
 0  10000 ! NHSTAR,NHSINC (1=save for hot start, store every NHSINC time steps)
