gomex_g11_v019_s                ! 32 CHARACTER ALPHANUMERIC RUN DESCR.
RUN GG4                  ! 24 CHARACTER ALPHANUMERIC RUN IDENTIFIC. 
 0  East_lin_1_layer.hot ! IHOT - parameter for hot start, 0=cold, 67=read fort.67 (binary)
 2  ! ICS - COORDINATE SYSTEM SELECTION PARAMETER
 1   ! NOLIBF - BOTTOM FRICTION TERM SELECTION PARAMETER
 0   ! NWP - VARIABLE BOTTOM FRICTION AND LATERAL VISCOSITY OPTION PARAMETER
 1  ! NCOR - VARIABLE CORIOLIS IN SPACE OPTION PARAMETER
 1  ! NTIP - TIDAL POTENTIAL OPTION PARAMETER
 0  ! NWS - WIND STRESS AND BAROMETRIC PRESSURE OPTION PARAMETER
 0  ! NRAMP - RAMP FUNCTION OPTION
 9.81   ! G - ACCELERATION DUE TO GRAVITY - DETERMINES UNITS 
 0  ! NQUAD - NUMBER OF QUADRATURE POINTS
 0    ! NDTVAR - AUTOMATIC TIME STEP SELECTION PARAMETER, 0=NO, 1=YES
 27.0 ! DT - TIME STEP (IN SECONDS)   ! 37.5
 0.0    ! STATIM - STARTING TIME (IN DAYS)
 0.0    ! REFTIM - REFERENCE TIME (IN DAYS)
 10     ! RNDAY - TOTAL LENGTH OF SIMULATION (IN DAYS)
 1      ! IRK - TIME STEPPING SCHEME: 1=EULER FORWARD, 2=2nd ORDER RUNGE-KUTTA
 1      ! ISLOPE - SLOPE LIMITING PARAMETER: 1=YES, 0=NO.
 0      ! ITRANS - 0=TRANSIENT, 1=STEADY STATE CALCULATION
 1.0E-5 ! CONVCR - CONV. CRITERIA FOR STEADY STATE CALCULATIONS
 1.000 ! DRAMP - DURATION OF RAMP FUNCTION (IN DAYS)
 0.25   ! H0 - MINIMUM CUTOFF DEPTH
 -74.097448 25.198679 ! SLAM0,SFEA0 - CENTER OF CPP PROJECTION IN DEGREES LONG/LAT
 0.0004 ! TAU - LINEARIZED FRICTION COEF USED WHEN NOLI = 0 OR 1
 0.003  ! CF - BOTTOM FRICTION COEFFICIENT USED WHEN NOLIBF=1 AND NWP=0
 0      ! NVISC - VISCOUS TERMS SELECTION PARAMETER
 0.0    ! ESL - LATERAL EDDY VISCOSITY COEFFICIENT; IGNORED IF NWP=1
 0.0    ! CORI - CORIOLIS PARAMETER - IGNORED IF NCOR = 1
 1  ! NTIF - NUMBER OF TIDAL POTENTIAL CONSTITUENTS BEING FORCED
 M2       ! ALPHANUMERIC DESCRIPTION OF TIDAL POTENTIAL FORCING DATA FOLLOWING
0.24233400 0.000140518902509 0.693 0.964 70.940    ! TPK, AMIGT, ETRF, FFT, FACET - CONSTITUENT PROPERTIES
 1 ! NBFR - TOTAL NUMBER OF FORCING FREQUENCIES ON OPEN BOUNDARIES
 M2       ! ALPHANUMERIC DESCRIPTION OF OPEN BOUNDARY FORCING DATA SET FOLLOWING
0.000140518902509 0.964 70.940
0 0.00 16.00  100 ! NOUTE,TOUTSE,TOUTFE,NSPOOLE:ELEV STATION OUTPUT INFO (UNIT  61)
 0  ! NSTAE - TOTAL NUMBER OF ELEVATION RECORDING STATIONS
0 0.00 16.00  100 ! NOUTV,TOUTSV,TOUTFV,NSPOOLV:VEL. STAT. OUTPUT INFO(UNIT 62)
 0  ! NSTAV - TOTAL NUMBER OF VELOCITY RECORDING STATIONS
0 0.00 12.00 450  ! NOUTGE,TOUTSGE,TOUTFGE,NSPOOLGE:GLOBAL ELEV OUTPUT INFO (UNIT  63)
1 0.00 12.00 450  ! NOUTGV,TOUTSGV,TOUTFGV,NSPOOLGV:GLOBAL VEL  OUTPUT INFO (UNIT  64)
0 5000   ! NHSTAR, NHSINC hot start output control
