gomex_g11_v019_s                ! 32 CHARACTER ALPHANUMERIC RUN DESCR.
RUN GG4                  ! 24 CHARACTER ALPHANUMERIC RUN IDENTIFIC. 
 0  East_lin_1_layer.hot ! IHOT - parameter for hot start, 0=cold, 67=read fort.67 (binary)
 2  ! ICS - COORDINATE SYSTEM SELECTION PARAMETER
 1   ! NOLIBF - BOTTOM FRICTION TERM SELECTION PARAMETER
 0   ! NWP - VARIABLE BOTTOM FRICTION AND LATERAL VISCOSITY OPTION PARAMETER
 1  ! NCOR - VARIABLE CORIOLIS IN SPACE OPTION PARAMETER
 1  ! NTIP - TIDAL POTENTIAL OPTION PARAMETER
 0  ! NWS - WIND STRESS AND BAROMETRIC PRESSURE OPTION PARAMETER
 0  ! NRAMP - RAMP FUNCTION OPTION
 9.81   ! G - ACCELERATION DUE TO GRAVITY - DETERMINES UNITS 
 0  ! NQUAD - NUMBER OF QUADRATURE POINTS
 0    ! NDTVAR - AUTOMATIC TIME STEP SELECTION PARAMETER, 0=NO, 1=YES
 1. ! DT - TIME STEP (IN SECONDS)   ! 37.5
 0.0    ! STATIM - STARTING TIME (IN DAYS)
 0.0    ! REFTIM - REFERENCE TIME (IN DAYS)
 1.    ! RNDAY - TOTAL LENGTH OF SIMULATION (IN DAYS)
 1      ! IRK - TIME STEPPING SCHEME: 1=EULER FORWARD, 2=2nd ORDER RUNGE-KUTTA
 1      ! ISLOPE - SLOPE LIMITING PARAMETER: 1=YES, 0=NO.
 0      ! ITRANS - 0=TRANSIENT, 1=STEADY STATE CALCULATION
 1.0E-5 ! CONVCR - CONV. CRITERIA FOR STEADY STATE CALCULATIONS
 5.000 ! DRAMP - DURATION OF RAMP FUNCTION (IN DAYS)
 0.25   ! H0 - MINIMUM CUTOFF DEPTH
 265.5 29.0 ! SLAM0,SFEA0 - CENTER OF CPP PROJECTION IN DEGREES LONG/LAT
 0.0004 ! TAU - LINEARIZED FRICTION COEF USED WHEN NOLI = 0 OR 1
 0.003  ! CF - BOTTOM FRICTION COEFFICIENT USED WHEN NOLIBF=1 AND NWP=0
 0      ! NVISC - VISCOUS TERMS SELECTION PARAMETER
 0.0    ! ESL - LATERAL EDDY VISCOSITY COEFFICIENT; IGNORED IF NWP=1
 0.0    ! CORI - CORIOLIS PARAMETER - IGNORED IF NCOR = 1
 1  ! NTIF - NUMBER OF TIDAL POTENTIAL CONSTITUENTS BEING FORCED
 M2       ! ALPHANUMERIC DESCRIPTION OF TIDAL POTENTIAL FORCING DATA FOLLOWING
 0.242339 0.000140518917083 0.69 1.0 0.0
 1 ! NBFR - TOTAL NUMBER OF FORCING FREQUENCIES ON OPEN BOUNDARIES
 M2       ! ALPHANUMERIC DESCRIPTION OF OPEN BOUNDARY FORCING DATA SET FOLLOWING
 0.000140518917083 1.0 0.0
0 0.00 16.00  100 ! NOUTE,TOUTSE,TOUTFE,NSPOOLE:ELEV STATION OUTPUT INFO (UNIT  61)
 147  ! NSTAE - TOTAL NUMBER OF ELEVATION RECORDING STATIONS
-66.116666666667    43.833333333333
-66.050000000000    45.266666666667
-68.200000000000    44.400000000000
-69.101666666667    44.105000000000
-70.741666666667    43.080000000000
-70.670000000000    41.513333333333
-70.095000000000    41.286666666667
-71.966666666667    41.050000000000
-74.011666666667    40.468333333333
-74.418333333333    39.351666666667
-74.960000000000    38.968333333333
-75.068333333333    38.605000000000
-75.085000000000    38.323333333333
-76.113333333333    36.966666666667
-75.750000000000    36.181666666667
-78.016666666667    33.915000000000
-79.916666666667    32.783333333333
-80.901666666667    32.033333333333
-81.433333333333    30.400000000000
-80.130000000000    25.768333333333
-81.800000000000    24.550000000000
-81.800000000000    26.133333333333
-83.031666666667    29.133333333333
-84.183333333333    30.066666666667
-85.750000000000    30.166666666667
-89.333333333333    30.300000000000
-89.166666666667    30.233333333333
-89.428333333333    28.931666666667
-91.750000000000    29.286666666667
-94.790000000000    29.300000000000
-97.149999999999    26.066666666667
-97.858333333333    22.216666666667
-97.058333333333    20.825000000000
-94.411666666667    18.148333333333
-90.533333333333    19.833333333333
-89.650000000000    21.300000000000
-89.650000000000    24.766666666667
-84.250000000000    26.700000000000
-87.950000000000    15.833333333333
-83.366666666667    14.016666666667
-83.033333333333    9.9999999999996
-79.916666666667    9.3500000000001
-75.533333333333   10.3833333333337
-68.933333333333    12.100000000000
-66.933333333333    10.616666666667
-64.166666666667   10.4499999999996
-61.516666666667    10.650000000000
-61.000000000000    14.016666666667
-61.050000000000    14.583333333333
-64.933333333333    18.333333333333
-67.050000000000    17.966666666667
-69.883333333333    18.466666666667
-70.683333333333    19.750000000000
-72.350000000000    18.550000000000
-75.150000000000    19.900000000000
-76.116666666667    21.100000000000
-79.983333333333    21.750000000000
-82.366666666667    23.133333333333
-77.350000000000    25.083333333333
-76.150000000000    24.766666666667
-64.833333333333    32.316666666667
-64.695000000000    32.370000000000
-64.883333333332    16.533333333333
-69.333333333333    26.466666666667
-84.250000000000    26.700000000000
-76.783333333333    28.016666666667
-69.750000000000    28.133333333333
-67.533333333334    28.233333333333
-76.800000000000    28.450000000000
-76.416666666667    30.433333333333
-64.433333333333    32.016666666667
-75.616666666667    32.683333333333
-73.083333333333    37.366666666667
-71.366666666667    39.166666666667
-72.166666666667    39.216666666667
-68.633333333333    40.116666666667
-70.900000000000    40.300000000000
-62.749068 43.791218  
-83.131150 25.555618  
-92.924342 28.564185  
-80.438022 31.142957  
-89.986384 22.362853  
-82.274245 15.547528  
-73.337957 39.431866  
-63.544765 11.249575  
-67.951701 42.624631  
-84.294091 28.257189  
-64.264480 42.617221  
-67.045198 40.549757  
-74.176921 37.694688  
-77.513783 32.936241  
-75.082103 35.189392  
-80.121648 30.391646  
-79.848806 27.203882  
-84.221755 25.455339  
-87.920681 29.280382  
 -91.482609 27.906115  
 -85.774391 28.478727  
 -92.167595 20.004080  
 -96.049184 27.470931  
 -97.236493 23.600079  
 -89.062324 23.622983  
 -86.961700 22.638092  
 -81.683660 16.637510  
 -70.506297 12.618453  
 -82.321638 12.848845  
 -62.653515 11.518462  
 -71.921401 21.789224  
 -76.014083 22.219872  
-75.540658 31.510390 
-62.768831 41.971758 
-73.923553 35.615484 
-69.600273 38.926043 
-77.058756 26.246601 
-66.059259 18.818245 
-63.906829 14.117251 
-69.083559 13.187985 
-62.244826 18.052967 
 -73.878847 12.258718 
 -78.783118 10.427517 
 -73.633633 22.781293 
 -92.277730 25.810839 
 -95.607972 22.508556 
 -84.698559 16.979152 
 -86.382819 24.236495 
 -86.153148 20.166239 
 -92.392566 22.201367 
 -77.655289 14.444842 
 -86.880442 26.732407 
 -79.530943 18.015916 
-82.146295 18.563741 
-83.609567 20.414519 
-74.957178 14.543084 
-68.595127 15.436564 
-64.396174 37.773544 
-73.048563 28.264372 
-62.678420 27.753813 
-93.343504 24.052256 
-69.867538 33.433788 
 -65.795825 13.139046 
 -77.565619 12.181746 
 -86.281628 25.520115 
 -66.686512 21.371818 
-72.300739 31.691994 
-70.752356 24.167956 
-65.035249 24.347100 
-67.953355 36.588590 
0 0.00 16.00  100 ! NOUTV,TOUTSV,TOUTFV,NSPOOLV:VEL. STAT. OUTPUT INFO(UNIT 62)
 147  ! NSTAV - TOTAL NUMBER OF VELOCITY RECORDING STATIONS
-66.116666666667    43.833333333333
-66.050000000000    45.266666666667
-68.200000000000    44.400000000000
-69.101666666667    44.105000000000
-70.741666666667    43.080000000000
-70.670000000000    41.513333333333
-70.095000000000    41.286666666667
-71.966666666667    41.050000000000
-74.011666666667    40.468333333333
-74.418333333333    39.351666666667
-74.960000000000    38.968333333333
-75.068333333333    38.605000000000
-75.085000000000    38.323333333333
-76.113333333333    36.966666666667
-75.750000000000    36.181666666667
-78.016666666667    33.915000000000
-79.916666666667    32.783333333333
-80.901666666667    32.033333333333
-81.433333333333    30.400000000000
-80.130000000000    25.768333333333
-81.800000000000    24.550000000000
-81.800000000000    26.133333333333
-83.031666666667    29.133333333333
-84.183333333333    30.066666666667
-85.750000000000    30.166666666667
-89.333333333333    30.300000000000
-89.166666666667    30.233333333333
-89.428333333333    28.931666666667
-91.750000000000    29.286666666667
-94.790000000000    29.300000000000
-97.149999999999    26.066666666667
-97.858333333333    22.216666666667
-97.058333333333    20.825000000000
-94.411666666667    18.148333333333
-90.533333333333    19.833333333333
-89.650000000000    21.300000000000
-89.650000000000    24.766666666667
-84.250000000000    26.700000000000
-87.950000000000    15.833333333333
-83.366666666667    14.016666666667
-83.033333333333    9.9999999999996
-79.916666666667    9.3500000000001
-75.533333333333   10.3833333333337
-68.933333333333    12.100000000000
-66.933333333333    10.616666666667
-64.166666666667   10.4499999999996
-61.516666666667    10.650000000000
-61.000000000000    14.016666666667
-61.050000000000    14.583333333333
-64.933333333333    18.333333333333
-67.050000000000    17.966666666667
-69.883333333333    18.466666666667
-70.683333333333    19.750000000000
-72.350000000000    18.550000000000
-75.150000000000    19.900000000000
-76.116666666667    21.100000000000
-79.983333333333    21.750000000000
-82.366666666667    23.133333333333
-77.350000000000    25.083333333333
-76.150000000000    24.766666666667
-64.833333333333    32.316666666667
-64.695000000000    32.370000000000
-64.883333333332    16.533333333333
-69.333333333333    26.466666666667
-84.250000000000    26.700000000000
-76.783333333333    28.016666666667
-69.750000000000    28.133333333333
-67.533333333334    28.233333333333
-76.800000000000    28.450000000000
-76.416666666667    30.433333333333
-64.433333333333    32.016666666667
-75.616666666667    32.683333333333
-73.083333333333    37.366666666667
-71.366666666667    39.166666666667
-72.166666666667    39.216666666667
-68.633333333333    40.116666666667
-70.900000000000    40.300000000000
-62.749068 43.791218  
-83.131150 25.555618  
-92.924342 28.564185  
-80.438022 31.142957  
-89.986384 22.362853  
-82.274245 15.547528  
-73.337957 39.431866  
-63.544765 11.249575  
-67.951701 42.624631  
-84.294091 28.257189  
-64.264480 42.617221  
-67.045198 40.549757  
-74.176921 37.694688  
-77.513783 32.936241  
-75.082103 35.189392  
-80.121648 30.391646  
-79.848806 27.203882  
-84.221755 25.455339  
-87.920681 29.280382  
 -91.482609 27.906115  
 -85.774391 28.478727  
 -92.167595 20.004080  
 -96.049184 27.470931  
 -97.236493 23.600079  
 -89.062324 23.622983  
 -86.961700 22.638092  
 -81.683660 16.637510  
 -70.506297 12.618453  
 -82.321638 12.848845  
 -62.653515 11.518462  
 -71.921401 21.789224  
 -76.014083 22.219872  
-75.540658 31.510390 
-62.768831 41.971758 
-73.923553 35.615484 
-69.600273 38.926043 
-77.058756 26.246601 
-66.059259 18.818245 
-63.906829 14.117251 
-69.083559 13.187985 
-62.244826 18.052967 
 -73.878847 12.258718 
 -78.783118 10.427517 
 -73.633633 22.781293 
 -92.277730 25.810839 
 -95.607972 22.508556 
 -84.698559 16.979152 
 -86.382819 24.236495 
 -86.153148 20.166239 
 -92.392566 22.201367 
 -77.655289 14.444842 
 -86.880442 26.732407 
 -79.530943 18.015916 
-82.146295 18.563741 
-83.609567 20.414519 
-74.957178 14.543084 
-68.595127 15.436564 
-64.396174 37.773544 
-73.048563 28.264372 
-62.678420 27.753813 
-93.343504 24.052256 
-69.867538 33.433788 
 -65.795825 13.139046 
 -77.565619 12.181746 
 -86.281628 25.520115 
 -66.686512 21.371818 
-72.300739 31.691994 
-70.752356 24.167956 
-65.035249 24.347100 
-67.953355 36.588590 
0 0.00 12.00 450  ! NOUTGE,TOUTSGE,TOUTFGE,NSPOOLGE:GLOBAL ELEV OUTPUT INFO (UNIT  63)
1 0.00 12.00 450  ! NOUTGV,TOUTSGV,TOUTFGV,NSPOOLGV:GLOBAL VEL  OUTPUT INFO (UNIT  64)
0 5000   ! NHSTAR, NHSINC hot start output control
