TEST PROBLEM #2                          ! 30 CHARACTER ALPHANUM RUN DESCRIPTION
Coarse Mesh                              ! 24 CHARACTER ALPANUMERIC RUN IDENTIFICATION 
 0 OUTPUT/Supercritical_parallel.hot ! IHOT - parameter for hot start, 0=cold, 67=read fort.67 (binary)
 1 ! ICS - COORDINATE SYSTEM SELECTION PARAMETER
 0 ! NOLIBF - BOTTOM FRICTION TERM SELECTION PARAMETER
 0 ! NWP - VARIABLE BOTTOM FRICTION AND LATERAL VISCOSITY OPTION PARAMETER
 0 ! NCOR - VARIABLE CORIOLIS IN SPACE OPTION PARAMETER
 0 ! NTIP - TIDAL POTENTIAL OPTION PARAMETER
 0 ! NWS - WIND STRESS AND BAROMETRIC PRESSURE OPTION PARAMETER
 0 ! NRAMP - RAMP FUNCTION OPTION
 0.16  ! G - ACCELERATION DUE TO GRAVITY - DETERMINES UNITS 
 3  ! NQUAD - NUMBER OF QUADRATURE POINTS
 0.5000000000 0.5000000000 0.3333333333 ! QUADRATURE POINT, COORDINATES AND WEIG
 0.0000000000 0.5000000000 0.3333333333 ! QUADRATURE POINT, COORDINATES AND WEIT
 0.5000000000 0.0000000000 0.3333333333 ! QUADRATURE POINT, COORDINATES AND WEIT
 0      ! NDTVAR - AUTOMATIC TIME STEP SELECTION, 0=NO, 1=YES
 2.E-1 ! DT - TIME STEP (IN SECONDS) ! 86.4
 0.0    ! STATIM - STARTING TIME (IN DAYS)
 0.0    ! REFTIM - REFERENCE TIME (IN DAYS)
 3.0E-3 ! RNDAY - TOTAL LENGTH OF SIMULATION (IN DAYS)
 1      ! IRK - TEMPORAL SCHEME: 1=Euler Forward; 2=2nd order Runge-Kutta
 2      ! Riemann solver switch parameter 0-HLL, 1-Roe, 2-Roe+entropy fix, 3-Lax-Friedrichs
 1      ! ITRANS - 0=TRANSIENT SIMULATION, 1=STEADY STATE SIMULATION
 1.0E-5 ! CONVCR - Conv. Criteria, used only in steady state calculation.
 2.5E-5 ! DRAMP - DURATION OF RAMP FUNCTION (IN DAYS)
 0.05    ! H0 - MINIMUM CUTOFF DEPTH
 -79.0 35.0 ! SLAM0,SFEA0 - CENTER OF CPP PROJECTION IN DEGREES LONG/LAT
 0.0000 ! TAU - LINEARIZED FRICTION COEF USED WHEN NOLIBF=0  ! 0.0001  
 0.000  ! CF - BOTTOM FRICTION COEFFICIENT USED WHEN NOLIBF=1 AND NWP=0 
 0      ! NVISC - VISCOUS TERMS SELECTION PARAMETER, 0=NO, 1=YES
 0.0000 ! ESL - LATERAL EDDY VISCOSITY COEFFICIENT; IGNORED IF NWP =1
 0.0    ! CORI - CORIOLIS PARAMETER - IGNORED IF NCOR = 1
 0 ! NTIF - NUMBER OF TIDAL POTENTIAL CONSTITUENTS BEING FORCED
 0 ! NBFR - TOTAL NUMBER OF FORCING FREQUENCIES ON OPEN BOUNDARIES
0 0.0 10.0  10  ! NOUTE,TOUTSE,TOUTFE,NSPOOLE:ELEV STATION OUTPUT INFO (UNIT  61)
 0  ! NSTAE - TOTAL NUMBER OF ELEVATION RECORDING STATIONS
0 0.0 10.0  10 ! NOUTV,TOUTSV,TOUTFV,NSPOOLV:VEL STATION OUTPUT INFO (UNIT  61)
 0  ! NSTAV - TOTAL NUMBER OF VELOCITY RECORDING STATIONS
1 0.00 10.0 200 ! NOUTGE,TOUTSGE,TOUTFGE,NSPOOLGE:GLOBAL ELEV OUTPUT INFO (UNIT  63)
1 0.00 10.0 200 ! NOUTGV,TOUTSGV,TOUTFGV,NSPOOLGV:GLOBAL VEL  OUTPUT INFO (UNIT  64)
0 1000	! hot start output control
